# File generated by Flopy version 3.3.6 on 06/26/2023 at 11:32:51.
BEGIN options
END options

BEGIN timing
  TDIS6  peat_testing_3.tdis
END timing

BEGIN models
  gwf6  peat_testing_3.nam  peat_testing_3
END models

BEGIN exchanges
END exchanges

BEGIN solutiongroup  1
  ims6  peat_testing_3.ims  peat_testing_3
END solutiongroup  1

