# File generated by Flopy version 3.3.6 on 06/26/2023 at 11:32:51.
BEGIN options
  COMPLEXITY  moderate
END options

BEGIN nonlinear
  OUTER_DVCLOSE       0.00100000
END nonlinear

