# File generated by Flopy version 3.3.6 on 06/26/2023 at 11:32:51.
BEGIN options
  BUDGET  FILEOUT  peat_testing_3.cbc
  HEAD  FILEOUT  peat_testing_3.hds
END options

BEGIN period  1
  SAVE  head  all
  SAVE  budget  all
END period  1

