# File generated by Flopy version 3.3.6 on 06/26/2023 at 11:32:51.
BEGIN options
  SAVE_FLOWS
END options

BEGIN packages
  OC6  peat_testing_3.oc  oc
  DIS6  peat_testing_3.dis  dis
  NPF6  peat_testing_3.npf  npf
  IC6  peat_testing_3.ic  ic
END packages

