# File generated by Flopy version 3.3.6 on 06/02/2023 at 12:10:19.
BEGIN options
END options

BEGIN timing
  TDIS6  peat_testing_2.tdis
END timing

BEGIN models
  gwf6  peat_testing_2.nam  peat_testing_2
END models

BEGIN exchanges
END exchanges

BEGIN solutiongroup  1
  ims6  peat_testing_2.ims  peat_testing_2
END solutiongroup  1

