# File generated by Flopy version 3.3.6 on 06/02/2023 at 12:10:19.
BEGIN options
  BUDGET  FILEOUT  peat_testing_2.cbc
  HEAD  FILEOUT  peat_testing_2.hds
END options

BEGIN period  1
  SAVE  HEAD  ALL
  SAVE  BUDGET  ALL
END period  1

