# File generated by Flopy version 3.3.6 on 06/02/2023 at 12:10:19.
BEGIN griddata
  strt
    CONSTANT       3.00000000
END griddata

