# File generated by Flopy version 3.3.6 on 06/02/2023 at 12:10:19.
BEGIN options
  SAVE_FLOWS
END options

BEGIN packages
  CHD6  peat_testing_2.chd  chd
  NPF6  peat_testing_2.npf  npf
  DIS6  peat_testing_2.dis  dis
  IC6  peat_testing_2.ic  ic
  OC6  peat_testing_2.oc  oc
END packages

