# File generated by Flopy version 3.3.6 on 03/03/2023 at 14:04:49.
BEGIN options
END options

BEGIN timing
  TDIS6  peat_testing_0.tdis
END timing

BEGIN models
  gwf6  peat_testing_0.nam  peat_testing_0
END models

BEGIN exchanges
END exchanges

BEGIN solutiongroup  1
  ims6  peat_testing_0.ims  peat_testing_0
END solutiongroup  1

