# File generated by Flopy version 3.3.6 on 06/02/2023 at 11:53:52.
BEGIN options
END options

BEGIN dimensions
  NLAY  1
  NROW  117
  NCOL  105
END dimensions

BEGIN griddata
  delr
    CONSTANT     100.00000000
  delc
    CONSTANT     100.00000000
  top
    INTERNAL  FACTOR  1.0
         7.00000000       7.00000000       5.00000000       8.00000000       4.00000000       7.00000000       7.00000000      10.00000000       1.00000000       7.00000000       6.00000000       7.00000000      14.00000000      14.00000000      13.00000000      13.00000000       8.00000000       7.00000000       6.00000000      10.00000000      13.00000000      14.00000000      16.00000000      11.00000000       8.00000000      12.00000000      12.00000000      10.00000000       5.00000000       9.00000000      11.00000000      14.00000000      14.00000000      13.00000000      17.00000000      10.00000000       9.00000000       9.00000000      13.00000000       8.00000000      11.00000000      10.00000000      16.00000000      12.00000000       9.00000000       8.00000000      10.00000000       6.00000000       2.00000000       2.00000000       2.00000000       6.00000000       4.00000000       4.00000000       7.00000000       3.00000000       8.00000000       6.00000000       6.00000000       8.00000000       8.00000000       9.00000000       7.00000000       9.00000000       6.00000000       7.00000000       3.00000000       9.00000000       7.00000000       6.00000000       5.00000000       6.00000000       6.00000000       5.00000000       6.00000000       5.00000000       6.00000000       9.00000000       5.00000000       5.00000000       5.00000000      15.00000000      13.00000000      11.00000000      12.00000000      14.00000000      14.00000000       9.00000000       9.00000000       7.00000000      10.00000000       5.00000000       4.00000000       4.00000000       4.00000000       4.00000000       4.00000000       4.00000000       4.00000000       4.00000000       4.00000000       4.00000000      10.00000000       9.00000000       2.00000000
        15.00000000      12.00000000       7.00000000      14.00000000      15.00000000       6.00000000       1.00000000       5.00000000       4.00000000       4.00000000       4.00000000       4.00000000       6.00000000       4.00000000       4.00000000       3.00000000       4.00000000       5.00000000       6.00000000       6.00000000       4.00000000       6.00000000       7.00000000       7.00000000      11.00000000      15.00000000      13.00000000       6.00000000       4.00000000       3.00000000       6.00000000      10.00000000      15.00000000      15.00000000      14.00000000      14.00000000      10.00000000      10.00000000       9.00000000       6.00000000      10.00000000      17.00000000      16.00000000      16.00000000      13.00000000      11.00000000      14.00000000      14.00000000       6.00000000      11.00000000      10.00000000       9.00000000       7.00000000       7.00000000      12.00000000      11.00000000       7.00000000       6.00000000       6.00000000       2.00000000       2.00000000       2.00000000       2.00000000       4.00000000       3.00000000       5.00000000       4.00000000       6.00000000       3.00000000       6.00000000       7.00000000       8.00000000       6.00000000      10.00000000       8.00000000       4.00000000       8.00000000       7.00000000       6.00000000       4.00000000       8.00000000       4.00000000       8.00000000      13.00000000       8.00000000       7.00000000       6.00000000       7.00000000       7.00000000      10.00000000       5.00000000       5.00000000       5.00000000      15.00000000       9.00000000      11.00000000      12.00000000      14.00000000      12.00000000       6.00000000       8.00000000       7.00000000       9.00000000      14.00000000       4.00000000
         4.00000000       4.00000000       4.00000000       4.00000000       4.00000000       4.00000000       4.00000000       4.00000000       4.00000000      13.00000000       5.00000000       8.00000000      18.00000000      13.00000000      16.00000000      21.00000000      21.00000000      23.00000000      11.00000000       5.00000000       4.00000000       4.00000000       4.00000000       5.00000000       6.00000000       7.00000000       6.00000000       7.00000000       7.00000000       5.00000000       4.00000000       7.00000000       5.00000000       7.00000000      13.00000000      14.00000000       6.00000000      11.00000000      15.00000000       9.00000000       8.00000000       5.00000000       7.00000000      15.00000000      12.00000000      11.00000000      13.00000000      15.00000000      15.00000000      13.00000000      10.00000000      14.00000000      14.00000000      19.00000000      16.00000000      15.00000000      11.00000000      12.00000000      13.00000000       9.00000000       5.00000000       7.00000000       7.00000000       7.00000000       7.00000000       7.00000000       8.00000000       7.00000000       3.00000000       4.00000000       6.00000000       2.00000000       2.00000000       2.00000000       2.00000000       5.00000000       6.00000000       4.00000000       6.00000000       6.00000000       7.00000000       6.00000000       7.00000000       8.00000000       6.00000000      11.00000000      11.00000000       5.00000000       6.00000000       6.00000000      10.00000000       7.00000000       9.00000000      10.00000000       8.00000000       7.00000000       7.00000000       7.00000000       5.00000000       6.00000000       7.00000000      11.00000000       5.00000000       5.00000000       5.00000000
        21.00000000      13.00000000      15.00000000      22.00000000      19.00000000      10.00000000       8.00000000       6.00000000       7.00000000       9.00000000      17.00000000       8.00000000       4.00000000       4.00000000       4.00000000       4.00000000       4.00000000       4.00000000       4.00000000       4.00000000       8.00000000      10.00000000       7.00000000      10.00000000      14.00000000      24.00000000      19.00000000      22.00000000      22.00000000      12.00000000       8.00000000       6.00000000       6.00000000       6.00000000       4.00000000       5.00000000       6.00000000       4.00000000       7.00000000       6.00000000       5.00000000       6.00000000       4.00000000       6.00000000       8.00000000       7.00000000       9.00000000      10.00000000       8.00000000       9.00000000       7.00000000      10.00000000      14.00000000       7.00000000       5.00000000      16.00000000       7.00000000       6.00000000       4.00000000      10.00000000      18.00000000      16.00000000      10.00000000      15.00000000      10.00000000      11.00000000       8.00000000      11.00000000       8.00000000       7.00000000       9.00000000      10.00000000       6.00000000      14.00000000      11.00000000      12.00000000      12.00000000       9.00000000      12.00000000      11.00000000       7.00000000       9.00000000       4.00000000       2.00000000       2.00000000       6.00000000      11.00000000       8.00000000       6.00000000       7.00000000       9.00000000       4.00000000       8.00000000       6.00000000       6.00000000       9.00000000       5.00000000      10.00000000       5.00000000       8.00000000       8.00000000      10.00000000       9.00000000       8.00000000      10.00000000
         8.00000000       7.00000000       8.00000000       9.00000000      11.00000000       7.00000000      10.00000000       9.00000000      11.00000000       5.00000000       5.00000000       5.00000000      19.00000000      16.00000000      21.00000000      20.00000000      17.00000000      15.00000000      13.00000000      10.00000000       4.00000000       4.00000000      11.00000000      13.00000000       5.00000000       4.00000000       4.00000000       4.00000000       4.00000000       4.00000000       4.00000000       4.00000000       6.00000000      12.00000000       7.00000000       7.00000000      12.00000000      13.00000000      16.00000000      15.00000000      11.00000000       6.00000000      20.00000000      14.00000000       4.00000000       8.00000000       5.00000000       4.00000000       4.00000000       5.00000000       4.00000000       5.00000000       7.00000000       3.00000000       7.00000000       6.00000000       8.00000000      12.00000000       7.00000000       4.00000000       5.00000000       9.00000000       7.00000000       5.00000000       7.00000000       7.00000000       6.00000000       7.00000000       6.00000000       3.00000000       5.00000000       7.00000000      15.00000000      13.00000000      13.00000000      10.00000000       6.00000000      11.00000000       8.00000000       7.00000000       8.00000000       6.00000000       8.00000000      12.00000000       9.00000000       8.00000000      12.00000000      14.00000000      16.00000000      11.00000000      14.00000000      13.00000000      13.00000000      10.00000000       7.00000000       9.00000000       7.00000000       8.00000000      11.00000000      12.00000000       8.00000000       9.00000000       7.00000000       6.00000000       9.00000000
         7.00000000       8.00000000       9.00000000       7.00000000       9.00000000       8.00000000       8.00000000       9.00000000      10.00000000       6.00000000       9.00000000      10.00000000      10.00000000       7.00000000       8.00000000       7.00000000       9.00000000       6.00000000       4.00000000       8.00000000       6.00000000       5.00000000       5.00000000       5.00000000      16.00000000      12.00000000       8.00000000      19.00000000      16.00000000      13.00000000      10.00000000      11.00000000       9.00000000       9.00000000       5.00000000      15.00000000      11.00000000       4.00000000       4.00000000       4.00000000       4.00000000       4.00000000       4.00000000       4.00000000       8.00000000       8.00000000       5.00000000       6.00000000       9.00000000       9.00000000      11.00000000      12.00000000       9.00000000      13.00000000      20.00000000      19.00000000       9.00000000       3.00000000       5.00000000       3.00000000       6.00000000       6.00000000       5.00000000       4.00000000      15.00000000       7.00000000       6.00000000      16.00000000       5.00000000       8.00000000       5.00000000       4.00000000       5.00000000      10.00000000       5.00000000       5.00000000       6.00000000       8.00000000       5.00000000       3.00000000       6.00000000       4.00000000      12.00000000      10.00000000       8.00000000      10.00000000      15.00000000       9.00000000       6.00000000       6.00000000       8.00000000      10.00000000       8.00000000       6.00000000      10.00000000      10.00000000       6.00000000       7.00000000      15.00000000      16.00000000      15.00000000      13.00000000      14.00000000      12.00000000      14.00000000
        15.00000000      13.00000000      13.00000000       8.00000000       7.00000000       7.00000000      10.00000000       6.00000000      13.00000000       7.00000000       6.00000000       8.00000000      11.00000000      14.00000000      11.00000000       6.00000000      12.00000000      10.00000000      13.00000000       9.00000000       9.00000000       9.00000000       9.00000000       7.00000000       8.00000000       9.00000000       6.00000000       7.00000000       6.00000000       7.00000000       3.00000000       7.00000000       5.00000000       5.00000000       5.00000000      18.00000000      17.00000000      13.00000000       5.00000000      16.00000000      21.00000000       8.00000000       7.00000000      12.00000000      11.00000000       7.00000000       4.00000000      20.00000000       9.00000000       7.00000000       4.00000000       4.00000000       4.00000000       4.00000000       4.00000000       3.00000000      10.00000000       8.00000000       4.00000000       9.00000000       6.00000000       8.00000000      14.00000000      11.00000000      17.00000000      18.00000000      18.00000000      19.00000000       8.00000000       3.00000000       2.00000000       4.00000000       3.00000000       5.00000000      10.00000000      11.00000000      12.00000000      14.00000000       4.00000000       7.00000000       6.00000000       6.00000000       7.00000000       5.00000000       7.00000000       8.00000000       7.00000000      11.00000000      10.00000000       5.00000000       3.00000000       8.00000000       7.00000000       9.00000000      16.00000000      13.00000000      11.00000000       9.00000000      11.00000000       8.00000000      10.00000000      12.00000000      11.00000000       8.00000000       7.00000000
         7.00000000       6.00000000       6.00000000      10.00000000       7.00000000      11.00000000      11.00000000       6.00000000      10.00000000      12.00000000      10.00000000       6.00000000       9.00000000       9.00000000      11.00000000       9.00000000      12.00000000       9.00000000       9.00000000       9.00000000       7.00000000       7.00000000       8.00000000       8.00000000      10.00000000       9.00000000       8.00000000       5.00000000      10.00000000      15.00000000      10.00000000       5.00000000       5.00000000       4.00000000       4.00000000       9.00000000       6.00000000       6.00000000       9.00000000       7.00000000       6.00000000       8.00000000       6.00000000       6.00000000       5.00000000       5.00000000       5.00000000      19.00000000      19.00000000      11.00000000       8.00000000      11.00000000      22.00000000      18.00000000      11.00000000       6.00000000       8.00000000       4.00000000       6.00000000      12.00000000      10.00000000       8.00000000       4.00000000       7.00000000       6.00000000       4.00000000       7.00000000       8.00000000       9.00000000       6.00000000      12.00000000      14.00000000      13.00000000      12.00000000      13.00000000      15.00000000      14.00000000      13.00000000      18.00000000      16.00000000      10.00000000       6.00000000       4.00000000       3.00000000       4.00000000       4.00000000       7.00000000      13.00000000      18.00000000      19.00000000       5.00000000       4.00000000       3.00000000       5.00000000       5.00000000       4.00000000       5.00000000       6.00000000       5.00000000      10.00000000       4.00000000       6.00000000       3.00000000      11.00000000      12.00000000
        15.00000000      16.00000000       9.00000000       9.00000000      12.00000000      10.00000000       5.00000000      11.00000000       7.00000000      10.00000000      12.00000000       5.00000000       6.00000000       6.00000000       7.00000000       8.00000000      13.00000000       8.00000000       4.00000000       8.00000000      10.00000000       8.00000000       8.00000000      10.00000000       7.00000000       8.00000000       6.00000000       6.00000000       5.00000000       6.00000000       9.00000000       6.00000000      11.00000000       8.00000000       5.00000000       4.00000000       7.00000000       2.00000000       7.00000000       6.00000000       4.00000000       5.00000000       6.00000000       6.00000000       5.00000000       6.00000000       4.00000000       6.00000000       6.00000000       5.00000000       7.00000000       7.00000000      11.00000000       9.00000000       6.00000000       5.00000000       5.00000000       5.00000000       5.00000000      23.00000000      19.00000000      13.00000000       7.00000000      16.00000000      19.00000000      15.00000000      10.00000000       7.00000000       6.00000000       5.00000000       8.00000000       7.00000000       9.00000000      16.00000000       8.00000000       8.00000000       7.00000000       9.00000000      15.00000000      10.00000000       8.00000000       7.00000000      18.00000000      15.00000000      11.00000000       7.00000000      10.00000000      16.00000000      14.00000000      10.00000000      13.00000000      16.00000000      18.00000000       5.00000000       6.00000000       4.00000000       4.00000000       2.00000000       8.00000000       9.00000000       8.00000000      14.00000000       6.00000000       3.00000000       5.00000000
         6.00000000       4.00000000       5.00000000       5.00000000       3.00000000       5.00000000       7.00000000       8.00000000       8.00000000       9.00000000       7.00000000      13.00000000       9.00000000      13.00000000      11.00000000       8.00000000      12.00000000       8.00000000       8.00000000       7.00000000       9.00000000       6.00000000      10.00000000       8.00000000       5.00000000       7.00000000       6.00000000       6.00000000      10.00000000       8.00000000       7.00000000       7.00000000       8.00000000       4.00000000       7.00000000       9.00000000      10.00000000       6.00000000       9.00000000       6.00000000       9.00000000       6.00000000       8.00000000       8.00000000       8.00000000       3.00000000       4.00000000       5.00000000       7.00000000       6.00000000       5.00000000       3.00000000       5.00000000       5.00000000       5.00000000       4.00000000       2.00000000       4.00000000       3.00000000       7.00000000       5.00000000       6.00000000       7.00000000       6.00000000       8.00000000       9.00000000       6.00000000       5.00000000       5.00000000       5.00000000       5.00000000      24.00000000      20.00000000       8.00000000       5.00000000      15.00000000      20.00000000      12.00000000      12.00000000       7.00000000       5.00000000      10.00000000       9.00000000       5.00000000       9.00000000      14.00000000      19.00000000      14.00000000      11.00000000      12.00000000      12.00000000       6.00000000       5.00000000      20.00000000      17.00000000      10.00000000      12.00000000       8.00000000       9.00000000      16.00000000      17.00000000      14.00000000      13.00000000      10.00000000      16.00000000
         7.00000000       5.00000000       4.00000000       5.00000000       5.00000000       7.00000000       8.00000000       4.00000000       5.00000000       6.00000000       5.00000000       4.00000000       7.00000000       4.00000000       5.00000000       6.00000000       6.00000000       6.00000000       5.00000000       5.00000000       9.00000000       8.00000000      11.00000000      19.00000000      10.00000000       4.00000000       9.00000000      16.00000000      12.00000000       8.00000000       9.00000000       7.00000000       9.00000000       9.00000000       7.00000000       9.00000000       6.00000000       5.00000000      10.00000000       8.00000000      10.00000000      10.00000000       8.00000000       9.00000000       7.00000000       5.00000000       6.00000000       4.00000000      12.00000000      10.00000000       5.00000000       9.00000000       7.00000000       6.00000000       6.00000000      11.00000000      10.00000000       1.00000000       2.00000000       4.00000000       4.00000000       5.00000000       6.00000000       5.00000000       5.00000000       6.00000000       9.00000000       7.00000000       5.00000000       4.00000000       3.00000000       6.00000000       4.00000000       1.00000000       4.00000000      10.00000000      11.00000000       5.00000000       5.00000000       5.00000000       5.00000000       5.00000000      18.00000000      21.00000000      20.00000000      14.00000000       8.00000000      19.00000000      16.00000000       8.00000000      11.00000000       7.00000000       7.00000000       8.00000000       7.00000000       5.00000000       3.00000000       6.00000000      13.00000000       9.00000000      10.00000000      13.00000000       6.00000000      10.00000000      19.00000000
        17.00000000      14.00000000       9.00000000      11.00000000      13.00000000      15.00000000      15.00000000      16.00000000      14.00000000      11.00000000      11.00000000      10.00000000       7.00000000       4.00000000       3.00000000       2.00000000       7.00000000       4.00000000       4.00000000       5.00000000       5.00000000       6.00000000       4.00000000       7.00000000       1.00000000       5.00000000       0.00000000       4.00000000       5.00000000       7.00000000       3.00000000       4.00000000       5.00000000       4.00000000      15.00000000      21.00000000      14.00000000      11.00000000      10.00000000      15.00000000      10.00000000      13.00000000       4.00000000      10.00000000      12.00000000       9.00000000      11.00000000      11.00000000      14.00000000       9.00000000      11.00000000      10.00000000       9.00000000      12.00000000       7.00000000       8.00000000       6.00000000       7.00000000       7.00000000       7.00000000       7.00000000       9.00000000       6.00000000       9.00000000       6.00000000       6.00000000       9.00000000       9.00000000       7.00000000       5.00000000       3.00000000       3.00000000       3.00000000       9.00000000       2.00000000       7.00000000       8.00000000       8.00000000       4.00000000       2.00000000       5.00000000       8.00000000       5.00000000       4.00000000       6.00000000       7.00000000       8.00000000      10.00000000       9.00000000       4.00000000       5.00000000       5.00000000       5.00000000       5.00000000      15.00000000      21.00000000      23.00000000      21.00000000      12.00000000      19.00000000      15.00000000      10.00000000       7.00000000       8.00000000       6.00000000
        10.00000000       8.00000000       4.00000000       8.00000000       6.00000000       7.00000000       7.00000000       7.00000000       7.00000000       6.00000000      15.00000000      15.00000000      12.00000000      13.00000000      15.00000000      17.00000000      16.00000000      12.00000000      12.00000000      13.00000000       9.00000000       8.00000000       7.00000000       5.00000000       5.00000000       4.00000000       5.00000000       5.00000000       5.00000000       4.00000000       3.00000000       6.00000000       4.00000000       7.00000000       4.00000000       7.00000000       3.00000000       0.00000000       4.00000000       4.00000000       5.00000000       6.00000000       6.00000000       6.00000000       5.00000000       5.00000000      19.00000000      16.00000000      15.00000000       8.00000000       9.00000000      12.00000000       9.00000000       8.00000000       8.00000000       7.00000000      12.00000000      10.00000000      10.00000000      10.00000000      11.00000000      11.00000000       8.00000000       8.00000000       8.00000000       9.00000000       9.00000000       8.00000000       5.00000000       7.00000000       7.00000000       7.00000000       5.00000000       8.00000000       4.00000000       8.00000000       8.00000000       6.00000000       7.00000000       8.00000000       4.00000000       3.00000000       4.00000000       6.00000000       8.00000000       6.00000000       8.00000000       8.00000000       5.00000000       6.00000000       6.00000000       5.00000000       4.00000000      10.00000000       6.00000000       5.00000000       7.00000000       8.00000000       9.00000000      12.00000000      10.00000000       5.00000000       5.00000000       5.00000000       5.00000000
         8.00000000      14.00000000      20.00000000      20.00000000      23.00000000      21.00000000       8.00000000       4.00000000       8.00000000      10.00000000       8.00000000       5.00000000       8.00000000       7.00000000       8.00000000       7.00000000       5.00000000       7.00000000       7.00000000       5.00000000       4.00000000      15.00000000      18.00000000      14.00000000      12.00000000      15.00000000      11.00000000      13.00000000      12.00000000       7.00000000      11.00000000       7.00000000       8.00000000       9.00000000       8.00000000       8.00000000       4.00000000       6.00000000       5.00000000       6.00000000       4.00000000       4.00000000       4.00000000       4.00000000       4.00000000       9.00000000       4.00000000       2.00000000       4.00000000       5.00000000       6.00000000       6.00000000       5.00000000       7.00000000      10.00000000       5.00000000       5.00000000       9.00000000      14.00000000      16.00000000      11.00000000      15.00000000      15.00000000       8.00000000       7.00000000       9.00000000       9.00000000       8.00000000       9.00000000      12.00000000      14.00000000       8.00000000       9.00000000      10.00000000      10.00000000       5.00000000      10.00000000      10.00000000       5.00000000       8.00000000       5.00000000       8.00000000       8.00000000       8.00000000       6.00000000       9.00000000       6.00000000       5.00000000       6.00000000      14.00000000      13.00000000       7.00000000       8.00000000       5.00000000       8.00000000       7.00000000       4.00000000       9.00000000       7.00000000       5.00000000       6.00000000       4.00000000       3.00000000       9.00000000       7.00000000
        12.00000000      12.00000000       7.00000000       9.00000000      11.00000000      12.00000000       6.00000000       5.00000000       5.00000000       5.00000000       5.00000000       5.00000000       8.00000000      18.00000000      21.00000000      22.00000000      19.00000000      17.00000000      12.00000000       8.00000000       9.00000000      11.00000000       9.00000000       4.00000000       4.00000000       4.00000000       2.00000000       4.00000000       5.00000000       2.00000000       4.00000000       0.00000000       8.00000000      17.00000000      15.00000000      14.00000000      12.00000000      10.00000000       8.00000000       6.00000000       7.00000000       7.00000000       9.00000000       7.00000000       8.00000000       8.00000000       9.00000000       4.00000000       6.00000000       3.00000000       4.00000000       6.00000000       5.00000000       5.00000000       4.00000000       4.00000000       5.00000000       4.00000000       2.00000000       6.00000000       4.00000000       6.00000000       8.00000000       4.00000000       5.00000000       8.00000000      10.00000000       7.00000000       7.00000000      13.00000000      15.00000000      16.00000000      10.00000000      13.00000000      11.00000000       6.00000000       7.00000000       8.00000000       9.00000000      11.00000000      10.00000000      11.00000000      13.00000000       5.00000000       6.00000000       9.00000000       9.00000000      10.00000000       9.00000000      13.00000000      12.00000000       8.00000000       7.00000000       6.00000000       5.00000000       9.00000000       9.00000000       6.00000000       9.00000000       9.00000000      12.00000000      12.00000000      10.00000000       7.00000000       5.00000000
         5.00000000       7.00000000       4.00000000       8.00000000       8.00000000       6.00000000       8.00000000       4.00000000       3.00000000       6.00000000       7.00000000      10.00000000      10.00000000       8.00000000       8.00000000       8.00000000      11.00000000      10.00000000      11.00000000       5.00000000       5.00000000       5.00000000       5.00000000      16.00000000      18.00000000      10.00000000      16.00000000      19.00000000      19.00000000      11.00000000      10.00000000      11.00000000       7.00000000       9.00000000       5.00000000       3.00000000       0.00000000       1.00000000       5.00000000       9.00000000       6.00000000       6.00000000       9.00000000      17.00000000      20.00000000      19.00000000      18.00000000      12.00000000       9.00000000       9.00000000       8.00000000       7.00000000       4.00000000      11.00000000      13.00000000      11.00000000       8.00000000       9.00000000       9.00000000      10.00000000      11.00000000       6.00000000       4.00000000       4.00000000       4.00000000       3.00000000       5.00000000       7.00000000       5.00000000       6.00000000       5.00000000       7.00000000       4.00000000       7.00000000       5.00000000       7.00000000      11.00000000      14.00000000       6.00000000       6.00000000      13.00000000      18.00000000      16.00000000      19.00000000      18.00000000      13.00000000       8.00000000       3.00000000       9.00000000       8.00000000       8.00000000       9.00000000       9.00000000      11.00000000      11.00000000      10.00000000      14.00000000      11.00000000      11.00000000      13.00000000      10.00000000      10.00000000       5.00000000      10.00000000       9.00000000