# File generated by Flopy version 3.3.6 on 03/03/2023 at 14:04:49.
BEGIN options
  TIME_UNITS  days
END options

BEGIN dimensions
  NPER  10
END dimensions

BEGIN perioddata
       5.00000000  1       1.00000000
       5.00000000  1       1.00000000
       5.00000000  1       1.00000000
       5.00000000  1       1.00000000
       5.00000000  1       1.00000000
       5.00000000  1       1.00000000
       5.00000000  1       1.00000000
       5.00000000  1       1.00000000
       5.00000000  1       1.00000000
       5.00000000  1       1.00000000
END perioddata

