# File generated by Flopy version 3.3.6 on 03/03/2023 at 14:04:49.
BEGIN options
  SAVE_FLOWS
END options

BEGIN packages
  DIS6  peat_testing_0.dis  dis
  IC6  peat_testing_0.ic  ic
  NPF6  peat_testing_0.npf  npf
  DRN6  peat_testing_0.drn  drn_0
  CHD6  peat_testing_0.chd  chd
END packages

