# File generated by Flopy version 3.3.6 on 03/03/2023 at 14:04:50.
BEGIN griddata
  strt
    CONSTANT       3.00000000
END griddata

