# File generated by Flopy version 3.3.6 on 03/03/2023 at 14:04:49.
BEGIN options
  LENGTH_UNITS  meter
END options

BEGIN dimensions
  NLAY  1
  NROW  117
  NCOL  105
END dimensions

BEGIN griddata
  delr
    CONSTANT     100.00000000
  delc
    CONSTANT     100.00000000
  top
    INTERNAL  FACTOR  1.0
    -3.40282306E+38  -3.40282306E+38  -3.40282306E+38  -3.40282306E+38  -3.40282306E+38  -3.40282306E+38  -3.40282306E+38  -3.40282306E+38  -3.40282306E+38  -3.40282306E+38  -3.40282306E+38  -3.40282306E+38  -3.40282306E+38  -3.40282306E+38  -3.40282306E+38  -3.40282306E+38  -3.40282306E+38  -3.40282306E+38  -3.40282306E+38  -3.40282306E+38  -3.40282306E+38  -3.40282306E+38  -3.40282306E+38  -3.40282306E+38  -3.40282306E+38  -3.40282306E+38  -3.40282306E+38  -3.40282306E+38  -3.40282306E+38  -3.40282306E+38  -3.40282306E+38  -3.40282306E+38  -3.40282306E+38  -3.40282306E+38  -3.40282306E+38  -3.40282306E+38  -3.40282306E+38  -3.40282306E+38  -3.40282306E+38  -3.40282306E+38  -3.40282306E+38  -3.40282306E+38  -3.40282306E+38  -3.40282306E+38  -3.40282306E+38  -3.40282306E+38  -3.40282306E+38  -3.40282306E+38  -3.40282306E+38  -3.40282306E+38  -3.40282306E+38  -3.40282306E+38  -3.40282306E+38  -3.40282306E+38  -3.40282306E+38  -3.40282306E+38  -3.40282306E+38  -3.40282306E+38  -3.40282306E+38  -3.40282306E+38  -3.40282306E+38  -3.40282306E+38  -3.40282306E+38  -3.40282306E+38  -3.40282306E+38  -3.40282306E+38       4.61132193       5.71041965       4.61132193  -3.40282306E+38  -3.40282306E+38  -3.40282306E+38  -3.40282306E+38  -3.40282306E+38  -3.40282306E+38  -3.40282306E+38  -3.40282306E+38  -3.40282306E+38  -3.40282306E+38  -3.40282306E+38  -3.40282306E+38  -3.40282306E+38  -3.40282306E+38  -3.40282306E+38  -3.40282306E+38  -3.40282306E+38  -3.40282306E+38  -3.40282306E+38  -3.40282306E+38  -3.40282306E+38  -3.40282306E+38  -3.40282306E+38  -3.40282306E+38  -3.40282306E+38  -3.40282306E+38  -3.40282306E+38  -3.40282306E+38  -3.40282306E+38  -3.40282306E+38  -3.40282306E+38  -3.40282306E+38  -3.40282306E+38  -3.40282306E+38  -3.40282306E+38  -3.40282306E+38
    -3.40282306E+38  -3.40282306E+38  -3.40282306E+38  -3.40282306E+38  -3.40282306E+38  -3.40282306E+38  -3.40282306E+38  -3.40282306E+38  -3.40282306E+38  -3.40282306E+38  -3.40282306E+38  -3.40282306E+38  -3.40282306E+38  -3.40282306E+38  -3.40282306E+38  -3.40282306E+38  -3.40282306E+38  -3.40282306E+38  -3.40282306E+38  -3.40282306E+38  -3.40282306E+38  -3.40282306E+38  -3.40282306E+38  -3.40282306E+38  -3.40282306E+38  -3.40282306E+38  -3.40282306E+38  -3.40282306E+38  -3.40282306E+38  -3.40282306E+38  -3.40282306E+38  -3.40282306E+38  -3.40282306E+38  -3.40282306E+38  -3.40282306E+38  -3.40282306E+38  -3.40282306E+38  -3.40282306E+38  -3.40282306E+38  -3.40282306E+38  -3.40282306E+38  -3.40282306E+38  -3.40282306E+38  -3.40282306E+38  -3.40282306E+38  -3.40282306E+38  -3.40282306E+38  -3.40282306E+38  -3.40282306E+38  -3.40282306E+38  -3.40282306E+38  -3.40282306E+38  -3.40282306E+38  -3.40282306E+38  -3.40282306E+38  -3.40282306E+38  -3.40282306E+38  -3.40282306E+38  -3.40282306E+38  -3.40282306E+38  -3.40282306E+38  -3.40282306E+38  -3.40282306E+38  -3.40282306E+38  -3.40282306E+38  -3.40282306E+38  -3.40282306E+38  -3.40282306E+38  -3.40282306E+38  -3.40282306E+38  -3.40282306E+38  -3.40282306E+38  -3.40282306E+38  -3.40282306E+38  -3.40282306E+38       4.61132193       4.61132193       6.36402416       7.01122808       6.33844090       6.42803192       6.55138588       6.75145102       4.61132193  -3.40282306E+38  -3.40282306E+38  -3.40282306E+38  -3.40282306E+38  -3.40282306E+38  -3.40282306E+38  -3.40282306E+38  -3.40282306E+38  -3.40282306E+38  -3.40282306E+38  -3.40282306E+38  -3.40282306E+38  -3.40282306E+38  -3.40282306E+38  -3.40282306E+38  -3.40282306E+38  -3.40282306E+38  -3.40282306E+38  -3.40282306E+38  -3.40282306E+38  -3.40282306E+38
    -3.40282306E+38  -3.40282306E+38  -3.40282306E+38  -3.40282306E+38  -3.40282306E+38  -3.40282306E+38  -3.40282306E+38  -3.40282306E+38  -3.40282306E+38  -3.40282306E+38  -3.40282306E+38  -3.40282306E+38  -3.40282306E+38  -3.40282306E+38  -3.40282306E+38  -3.40282306E+38  -3.40282306E+38  -3.40282306E+38  -3.40282306E+38  -3.40282306E+38  -3.40282306E+38  -3.40282306E+38  -3.40282306E+38  -3.40282306E+38  -3.40282306E+38  -3.40282306E+38  -3.40282306E+38  -3.40282306E+38  -3.40282306E+38  -3.40282306E+38  -3.40282306E+38  -3.40282306E+38  -3.40282306E+38  -3.40282306E+38  -3.40282306E+38  -3.40282306E+38  -3.40282306E+38  -3.40282306E+38  -3.40282306E+38  -3.40282306E+38  -3.40282306E+38  -3.40282306E+38  -3.40282306E+38  -3.40282306E+38  -3.40282306E+38  -3.40282306E+38  -3.40282306E+38  -3.40282306E+38  -3.40282306E+38  -3.40282306E+38  -3.40282306E+38  -3.40282306E+38  -3.40282306E+38  -3.40282306E+38  -3.40282306E+38  -3.40282306E+38  -3.40282306E+38  -3.40282306E+38  -3.40282306E+38  -3.40282306E+38  -3.40282306E+38  -3.40282306E+38  -3.40282306E+38  -3.40282306E+38  -3.40282306E+38  -3.40282306E+38  -3.40282306E+38  -3.40282306E+38  -3.40282306E+38  -3.40282306E+38  -3.40282306E+38  -3.40282306E+38  -3.40282306E+38  -3.40282306E+38  -3.40282306E+38  -3.40282306E+38  -3.40282306E+38  -3.40282306E+38  -3.40282306E+38  -3.40282306E+38  -3.40282306E+38  -3.40282306E+38  -3.40282306E+38  -3.40282306E+38  -3.40282306E+38  -3.40282306E+38       5.56824875       7.04718828       7.05878353       5.98185444       5.98185444      10.36120605       7.71029472       6.99644566       6.89460802       7.53428698       5.90783072       6.34111071  -3.40282306E+38  -3.40282306E+38  -3.40282306E+38  -3.40282306E+38  -3.40282306E+38  -3.40282306E+38  -3.40282306E+38
    -3.40282306E+38  -3.40282306E+38  -3.40282306E+38  -3.40282306E+38  -3.40282306E+38  -3.40282306E+38  -3.40282306E+38  -3.40282306E+38  -3.40282306E+38  -3.40282306E+38  -3.40282306E+38  -3.40282306E+38  -3.40282306E+38  -3.40282306E+38  -3.40282306E+38  -3.40282306E+38  -3.40282306E+38  -3.40282306E+38  -3.40282306E+38  -3.40282306E+38  -3.40282306E+38  -3.40282306E+38  -3.40282306E+38  -3.40282306E+38  -3.40282306E+38  -3.40282306E+38  -3.40282306E+38  -3.40282306E+38  -3.40282306E+38  -3.40282306E+38  -3.40282306E+38  -3.40282306E+38  -3.40282306E+38  -3.40282306E+38  -3.40282306E+38  -3.40282306E+38  -3.40282306E+38  -3.40282306E+38  -3.40282306E+38  -3.40282306E+38  -3.40282306E+38  -3.40282306E+38  -3.40282306E+38  -3.40282306E+38  -3.40282306E+38  -3.40282306E+38  -3.40282306E+38  -3.40282306E+38  -3.40282306E+38  -3.40282306E+38  -3.40282306E+38  -3.40282306E+38  -3.40282306E+38  -3.40282306E+38  -3.40282306E+38  -3.40282306E+38  -3.40282306E+38  -3.40282306E+38  -3.40282306E+38  -3.40282306E+38  -3.40282306E+38  -3.40282306E+38  -3.40282306E+38  -3.40282306E+38  -3.40282306E+38       4.61132193       4.61132193       4.61132193       4.61132193  -3.40282306E+38  -3.40282306E+38  -3.40282306E+38  -3.40282306E+38  -3.40282306E+38  -3.40282306E+38  -3.40282306E+38  -3.40282306E+38  -3.40282306E+38  -3.40282306E+38  -3.40282306E+38  -3.40282306E+38  -3.40282306E+38  -3.40282306E+38  -3.40282306E+38  -3.40282306E+38  -3.40282306E+38  -3.40282306E+38  -3.40282306E+38  -3.40282306E+38  -3.40282306E+38  -3.40282306E+38  -3.40282306E+38  -3.40282306E+38  -3.40282306E+38  -3.40282306E+38       4.61132193       4.61132193       6.13863611       6.37834978      10.39148903       6.81496763       5.77534723       6.20834017       6.44123173       6.02680302
         6.02680302       6.02680302       6.02680302       6.38508511       6.37155914       5.83996773  -3.40282306E+38  -3.40282306E+38  -3.40282306E+38  -3.40282306E+38  -3.40282306E+38  -3.40282306E+38  -3.40282306E+38  -3.40282306E+38  -3.40282306E+38  -3.40282306E+38  -3.40282306E+38  -3.40282306E+38  -3.40282306E+38  -3.40282306E+38  -3.40282306E+38  -3.40282306E+38  -3.40282306E+38  -3.40282306E+38  -3.40282306E+38  -3.40282306E+38  -3.40282306E+38  -3.40282306E+38  -3.40282306E+38  -3.40282306E+38  -3.40282306E+38  -3.40282306E+38  -3.40282306E+38  -3.40282306E+38  -3.40282306E+38  -3.40282306E+38  -3.40282306E+38  -3.40282306E+38  -3.40282306E+38  -3.40282306E+38  -3.40282306E+38  -3.40282306E+38  -3.40282306E+38  -3.40282306E+38  -3.40282306E+38  -3.40282306E+38  -3.40282306E+38  -3.40282306E+38  -3.40282306E+38  -3.40282306E+38  -3.40282306E+38  -3.40282306E+38  -3.40282306E+38  -3.40282306E+38  -3.40282306E+38  -3.40282306E+38  -3.40282306E+38  -3.40282306E+38  -3.40282306E+38  -3.40282306E+38  -3.40282306E+38  -3.40282306E+38  -3.40282306E+38  -3.40282306E+38  -3.40282306E+38  -3.40282306E+38  -3.40282306E+38  -3.40282306E+38  -3.40282306E+38  -3.40282306E+38  -3.40282306E+38  -3.40282306E+38  -3.40282306E+38  -3.40282306E+38  -3.40282306E+38  -3.40282306E+38       4.61132193       6.26442719       7.25530100       9.95937347       5.97550344       6.97404861       4.61132193       4.61132193  -3.40282306E+38  -3.40282306E+38  -3.40282306E+38  -3.40282306E+38  -3.40282306E+38  -3.40282306E+38  -3.40282306E+38  -3.40282306E+38  -3.40282306E+38  -3.40282306E+38  -3.40282306E+38  -3.40282306E+38  -3.40282306E+38  -3.40282306E+38  -3.40282306E+38  -3.40282306E+38  -3.40282306E+38  -3.40282306E+38  -3.40282306E+38  -3.40282306E+38  -3.40282306E+38
         4.61132193       4.61132193       6.87092447       6.16332054       6.16332054       6.37276793       6.00285006       6.01467228       6.56937647       5.77042103       7.13647890       6.14646006       6.65717602       6.79081774       6.26178741       6.02680302       6.17476320       4.87118959  -3.40282306E+38  -3.40282306E+38  -3.40282306E+38  -3.40282306E+38  -3.40282306E+38  -3.40282306E+38  -3.40282306E+38  -3.40282306E+38  -3.40282306E+38  -3.40282306E+38  -3.40282306E+38  -3.40282306E+38  -3.40282306E+38  -3.40282306E+38  -3.40282306E+38  -3.40282306E+38  -3.40282306E+38  -3.40282306E+38  -3.40282306E+38  -3.40282306E+38  -3.40282306E+38  -3.40282306E+38  -3.40282306E+38  -3.40282306E+38  -3.40282306E+38  -3.40282306E+38  -3.40282306E+38  -3.40282306E+38  -3.40282306E+38  -3.40282306E+38  -3.40282306E+38  -3.40282306E+38  -3.40282306E+38  -3.40282306E+38  -3.40282306E+38  -3.40282306E+38  -3.40282306E+38  -3.40282306E+38  -3.40282306E+38  -3.40282306E+38  -3.40282306E+38  -3.40282306E+38  -3.40282306E+38  -3.40282306E+38  -3.40282306E+38  -3.40282306E+38  -3.40282306E+38  -3.40282306E+38  -3.40282306E+38  -3.40282306E+38  -3.40282306E+38  -3.40282306E+38  -3.40282306E+38  -3.40282306E+38  -3.40282306E+38  -3.40282306E+38  -3.40282306E+38  -3.40282306E+38  -3.40282306E+38  -3.40282306E+38  -3.40282306E+38  -3.40282306E+38  -3.40282306E+38  -3.40282306E+38  -3.40282306E+38  -3.40282306E+38  -3.40282306E+38  -3.40282306E+38  -3.40282306E+38  -3.40282306E+38       5.92525434       7.85195208       8.71896935       6.64626026       5.66643095       6.03129387       6.14514351       5.28405333       4.61132193  -3.40282306E+38  -3.40282306E+38  -3.40282306E+38  -3.40282306E+38  -3.40282306E+38  -3.40282306E+38  -3.40282306E+38  -3.40282306E+38
    -3.40282306E+38  -3.40282306E+38  -3.40282306E+38  -3.40282306E+38  -3.40282306E+38  -3.40282306E+38  -3.40282306E+38  -3.40282306E+38  -3.40282306E+38  -3.40282306E+38       4.61132193       4.61132193       6.83137751      11.22465706       8.56809521       6.59360313       7.65861607       5.53862667       6.97816372       6.33243036       5.44860268       5.44860268       5.79063225       5.66352415       5.66352415       5.66352415       6.71816444       6.96664476       7.56210566       5.71188927  -3.40282306E+38  -3.40282306E+38  -3.40282306E+38  -3.40282306E+38  -3.40282306E+38  -3.40282306E+38  -3.40282306E+38  -3.40282306E+38  -3.40282306E+38  -3.40282306E+38  -3.40282306E+38  -3.40282306E+38  -3.40282306E+38  -3.40282306E+38  -3.40282306E+38  -3.40282306E+38  -3.40282306E+38  -3.40282306E+38  -3.40282306E+38  -3.40282306E+38  -3.40282306E+38  -3.40282306E+38  -3.40282306E+38  -3.40282306E+38  -3.40282306E+38  -3.40282306E+38  -3.40282306E+38  -3.40282306E+38  -3.40282306E+38  -3.40282306E+38  -3.40282306E+38  -3.40282306E+38  -3.40282306E+38  -3.40282306E+38  -3.40282306E+38  -3.40282306E+38  -3.40282306E+38  -3.40282306E+38  -3.40282306E+38  -3.40282306E+38  -3.40282306E+38  -3.40282306E+38  -3.40282306E+38  -3.40282306E+38  -3.40282306E+38  -3.40282306E+38  -3.40282306E+38  -3.40282306E+38  -3.40282306E+38  -3.40282306E+38  -3.40282306E+38  -3.40282306E+38  -3.40282306E+38  -3.40282306E+38  -3.40282306E+38  -3.40282306E+38  -3.40282306E+38  -3.40282306E+38  -3.40282306E+38  -3.40282306E+38  -3.40282306E+38  -3.40282306E+38  -3.40282306E+38  -3.40282306E+38  -3.40282306E+38  -3.40282306E+38  -3.40282306E+38  -3.40282306E+38  -3.40282306E+38       6.93543959       7.91871357       5.95621204       5.42706394       6.82667685       5.42706394
         5.59720325       5.21865940       6.19224787       6.22056866       5.26809692       4.61132193  -3.40282306E+38  -3.40282306E+38  -3.40282306E+38  -3.40282306E+38  -3.40282306E+38  -3.40282306E+38  -3.40282306E+38  -3.40282306E+38  -3.40282306E+38  -3.40282306E+38  -3.40282306E+38  -3.40282306E+38  -3.40282306E+38       4.61132193       9.31357956       6.96612549       6.42174196       8.63311577       5.80441856       5.44860268       5.81103230       7.54950619       5.44860268       5.87697887       5.75940895       5.44860268       5.44860268       5.44860268       5.65221024       5.44860268       6.34258938       6.09219456       6.72539806       5.97813177       6.07366037  -3.40282306E+38  -3.40282306E+38  -3.40282306E+38  -3.40282306E+38  -3.40282306E+38  -3.40282306E+38  -3.40282306E+38  -3.40282306E+38  -3.40282306E+38  -3.40282306E+38  -3.40282306E+38  -3.40282306E+38  -3.40282306E+38  -3.40282306E+38  -3.40282306E+38  -3.40282306E+38  -3.40282306E+38  -3.40282306E+38  -3.40282306E+38  -3.40282306E+38  -3.40282306E+38  -3.40282306E+38  -3.40282306E+38  -3.40282306E+38  -3.40282306E+38  -3.40282306E+38  -3.40282306E+38  -3.40282306E+38  -3.40282306E+38  -3.40282306E+38  -3.40282306E+38  -3.40282306E+38  -3.40282306E+38  -3.40282306E+38  -3.40282306E+38  -3.40282306E+38  -3.40282306E+38  -3.40282306E+38  -3.40282306E+38  -3.40282306E+38  -3.40282306E+38  -3.40282306E+38  -3.40282306E+38  -3.40282306E+38  -3.40282306E+38  -3.40282306E+38  -3.40282306E+38  -3.40282306E+38  -3.40282306E+38  -3.40282306E+38  -3.40282306E+38  -3.40282306E+38  -3.40282306E+38  -3.40282306E+38  -3.40282306E+38  -3.40282306E+38  -3.40282306E+38  -3.40282306E+38  -3.40282306E+38  -3.40282306E+38  -3.40282306E+38  -3.40282306E+38  -3.40282306E+38  -3.40282306E+38
    -3.40282306E+38  -3.40282306E+38  -3.40282306E+38  -3.40282306E+38  -3.40282306E+38  -3.40282306E+38       7.03701258       6.11198235       6.59237099       7.82686138       5.42706394       5.52929401       5.21865940       5.21865940       5.21865940       5.51734161       6.57554674       6.44490147       6.44015121       4.61132193  -3.40282306E+38  -3.40282306E+38  -3.40282306E+38  -3.40282306E+38  -3.40282306E+38  -3.40282306E+38  -3.40282306E+38  -3.40282306E+38  -3.40282306E+38  -3.40282306E+38       4.61132193       5.24818802       5.44860268       5.44860268       5.44860268       5.44860268       5.44860268       5.44860268       5.44860268       5.44860268       5.44860268       5.44860268       5.44860268       5.44860268       5.44860268       5.44860268       5.44860268       5.44860268       5.44860268       5.44860268       5.44860268       6.55397558       7.35062361  -3.40282306E+38  -3.40282306E+38  -3.40282306E+38  -3.40282306E+38  -3.40282306E+38  -3.40282306E+38  -3.40282306E+38  -3.40282306E+38  -3.40282306E+38  -3.40282306E+38  -3.40282306E+38  -3.40282306E+38  -3.40282306E+38  -3.40282306E+38  -3.40282306E+38  -3.40282306E+38  -3.40282306E+38  -3.40282306E+38  -3.40282306E+38  -3.40282306E+38  -3.40282306E+38  -3.40282306E+38  -3.40282306E+38  -3.40282306E+38  -3.40282306E+38  -3.40282306E+38  -3.40282306E+38  -3.40282306E+38  -3.40282306E+38  -3.40282306E+38  -3.40282306E+38  -3.40282306E+38  -3.40282306E+38  -3.40282306E+38  -3.40282306E+38  -3.40282306E+38  -3.40282306E+38  -3.40282306E+38  -3.40282306E+38  -3.40282306E+38  -3.40282306E+38  -3.40282306E+38  -3.40282306E+38  -3.40282306E+38  -3.40282306E+38  -3.40282306E+38  -3.40282306E+38  -3.40282306E+38  -3.40282306E+38  -3.40282306E+38  -3.40282306E+38  -3.40282306E+38
    -3.40282306E+38  -3.40282306E+38  -3.40282306E+38  -3.40282306E+38  -3.40282306E+38  -3.40282306E+38  -3.40282306E+38  -3.40282306E+38  -3.40282306E+38  -3.40282306E+38  -3.40282306E+38  -3.40282306E+38  -3.40282306E+38  -3.40282306E+38  -3.40282306E+38  -3.40282306E+38  -3.40282306E+38       4.61132193       7.28539610       6.23447084       5.91167784       5.19043398       5.45025826       5.19043398       5.19043398       5.21865940       5.21865940       5.93221569       4.96564388       5.17004251       4.96564388       5.36766529       5.14913464       4.61132193       4.61132193       4.61132193  -3.40282306E+38  -3.40282306E+38  -3.40282306E+38       4.61132193       4.61132193       5.27676392       5.58767271       6.67531300       6.32427931       5.44860268       5.44860268       5.44860268       5.44860268       5.44860268       5.44860268       5.44860268       8.74403191       5.44860268       5.44860268       5.44860268       5.44860268       5.44860268       5.44860268       5.44860268       5.44860268       5.44860268       5.44860268       7.40229177       5.87444305  -3.40282306E+38  -3.40282306E+38  -3.40282306E+38  -3.40282306E+38  -3.40282306E+38  -3.40282306E+38  -3.40282306E+38  -3.40282306E+38  -3.40282306E+38  -3.40282306E+38  -3.40282306E+38  -3.40282306E+38  -3.40282306E+38  -3.40282306E+38  -3.40282306E+38  -3.40282306E+38  -3.40282306E+38  -3.40282306E+38  -3.40282306E+38  -3.40282306E+38  -3.40282306E+38  -3.40282306E+38  -3.40282306E+38  -3.40282306E+38  -3.40282306E+38  -3.40282306E+38  -3.40282306E+38  -3.40282306E+38  -3.40282306E+38  -3.40282306E+38  -3.40282306E+38  -3.40282306E+38  -3.40282306E+38  -3.40282306E+38  -3.40282306E+38  -3.40282306E+38  -3.40282306E+38  -3.40282306E+38  -3.40282306E+38  -3.40282306E+38
    -3.40282306E+38  -3.40282306E+38  -3.40282306E+38  -3.40282306E+38  -3.40282306E+38  -3.40282306E+38  -3.40282306E+38  -3.40282306E+38  -3.40282306E+38  -3.40282306E+38  -3.40282306E+38  -3.40282306E+38  -3.40282306E+38  -3.40282306E+38  -3.40282306E+38  -3.40282306E+38  -3.40282306E+38  -3.40282306E+38  -3.40282306E+38  -3.40282306E+38  -3.40282306E+38  -3.40282306E+38  -3.40282306E+38  -3.40282306E+38  -3.40282306E+38  -3.40282306E+38  -3.40282306E+38  -3.40282306E+38  -3.40282306E+38       6.72661066       6.87751293       5.90991926       5.40104866       5.19043398       5.19043398       5.27733707       5.50336742       5.04936647       5.45979834       5.97792816       6.14755726       6.15399361       6.54728603       4.96564388       4.98340750       5.40707016       5.56693459       4.96564388       4.97434616       4.92232037       5.49734592       5.39854145       4.61132193       5.50571728       6.62634134       6.16341400       5.44860268       5.44860268       5.44860268       5.44860268       5.44860268       5.44860268       5.44860268       5.44860268       5.44860268       5.44860268       5.44860268       5.44860268       5.44860268       5.44860268       5.44860268       5.44860268       5.44860268       5.49813890       5.44860268       5.45761585       4.61132193  -3.40282306E+38  -3.40282306E+38  -3.40282306E+38  -3.40282306E+38  -3.40282306E+38  -3.40282306E+38  -3.40282306E+38  -3.40282306E+38  -3.40282306E+38  -3.40282306E+38  -3.40282306E+38  -3.40282306E+38  -3.40282306E+38  -3.40282306E+38  -3.40282306E+38  -3.40282306E+38  -3.40282306E+38  -3.40282306E+38  -3.40282306E+38  -3.40282306E+38  -3.40282306E+38  -3.40282306E+38  -3.40282306E+38  -3.40282306E+38  -3.40282306E+38  -3.40282306E+38  -3.40282306E+38  -3.40282306E+38
    -3.40282306E+38  -3.40282306E+38  -3.40282306E+38  -3.40282306E+38  -3.40282306E+38  -3.40282306E+38  -3.40282306E+38  -3.40282306E+38  -3.40282306E+38  -3.40282306E+38  -3.40282306E+38  -3.40282306E+38  -3.40282306E+38  -3.40282306E+38  -3.40282306E+38  -3.40282306E+38  -3.40282306E+38  -3.40282306E+38  -3.40282306E+38  -3.40282306E+38  -3.40282306E+38  -3.40282306E+38  -3.40282306E+38  -3.40282306E+38  -3.40282306E+38  -3.40282306E+38  -3.40282306E+38  -3.40282306E+38  -3.40282306E+38  -3.40282306E+38  -3.40282306E+38  -3.40282306E+38  -3.40282306E+38  -3.40282306E+38  -3.40282306E+38  -3.40282306E+38  -3.40282306E+38  -3.40282306E+38  -3.40282306E+38  -3.40282306E+38  -3.40282306E+38       7.96968174       5.19043398       5.19043398       5.19043398       5.55513191       5.25031948       5.27733707       6.62749767       5.29751301       5.84045839       6.27994442       5.04936647       5.23031044       4.96564388       4.96564388       4.96564388       4.96564388       5.50615215       4.96564388       4.96564388       4.96564388       4.96564388       4.96564388       5.35527229       6.06313515       6.98826551       7.16943979       5.44860268       5.44860268       5.44860268       5.44860268       5.44860268       5.44860268       5.44860268       5.44860268       5.44860268       8.92564774       5.44860268       5.44860268       5.44860268       5.44860268       5.44860268       5.44860268       5.44860268       5.44860268       8.69542408       5.77084684       4.61132193  -3.40282306E+38  -3.40282306E+38  -3.40282306E+38  -3.40282306E+38  -3.40282306E+38  -3.40282306E+38  -3.40282306E+38  -3.40282306E+38  -3.40282306E+38  -3.40282306E+38  -3.40282306E+38  -3.40282306E+38  -3.40282306E+38  -3.40282306E+38  -3.40282306E+38  -3.40282306E+38
    -3.40282306E+38  -3.40282306E+38  -3.40282306E+38  -3.40282306E+38  -3.40282306E+38  -3.40282306E+38  -3.40282306E+38  -3.40282306E+38  -3.40282306E+38  -3.40282306E+38  -3.40282306E+38  -3.40282306E+38  -3.40282306E+38  -3.40282306E+38  -3.40282306E+38  -3.40282306E+38  -3.40282306E+38  -3.40282306E+38  -3.40282306E+38  -3.40282306E+38  -3.40282306E+38  -3.40282306E+38  -3.40282306E+38  -3.40282306E+38  -3.40282306E+38  -3.40282306E+38  -3.40282306E+38  -3.40282306E+38  -3.40282306E+38  -3.40282306E+38  -3.40282306E+38  -3.40282306E+38  -3.40282306E+38  -3.40282306E+38  -3.40282306E+38  -3.40282306E+38  -3.40282306E+38  -3.40282306E+38  -3.40282306E+38  -3.40282306E+38  -3.40282306E+38  -3.40282306E+38  -3.40282306E+38  -3.40282306E+38  -3.40282306E+38  -3.40282306E+38  -3.40282306E+38  -3.40282306E+38  -3.40282306E+38  -3.40282306E+38  -3.40282306E+38  -3.40282306E+38  -3.40282306E+38       6.31244898       5.48264217       5.45323849       5.19043398       5.30501175       5.37807941       7.56196404       5.04936647       5.04936647       5.04936647       5.04936647       5.65556908       5.04936647       4.97721958       4.96564388       4.96564388       6.01905060       4.96564388       4.96564388       4.96564388       4.96564388       5.22832823       4.96564388       4.96564388       4.96564388       5.52184296       7.18194294       5.50101089       5.44860268       5.44860268       5.44860268       5.44860268       8.36475754       6.20086861       5.44860268       5.44860268       5.44860268       5.44860268       5.95697927       5.44860268       5.62964439       8.24283123       6.59144545       7.74399281       6.53071690       8.08564377       4.84281540       4.61132193  -3.40282306E+38  -3.40282306E+38  -3.40282306E+38  -3.40282306E+38
    -3.40282306E+38  -3.40282306E+38  -3.40282306E+38  -3.40282306E+38  -3.40282306E+38  -3.40282306E+38  -3.40282306E+38  -3.40282306E+38  -3.40282306E+38  -3.40282306E+38  -3.40282306E+38  -3.40282306E+38  -3.40282306E+38  -3.40282306E+38  -3.40282306E+38  -3.40282306E+38  -3.40282306E+38  -3.40282306E+38  -3.40282306E+38  -3.40282306E+38  -3.40282306E+38  -3.40282306E+38  -3.40282306E+38  -3.40282306E+38  -3.40282306E+38  -3.40282306E+38  -3.40282306E+38  -3.40282306E+38  -3.40282306E+38  -3.40282306E+38  -3.40282306E+38  -3.40282306E+38  -3.40282306E+38  -3.40282306E+38  -3.40282306E+38  -3.40282306E+38  -3.40282306E+38  -3.40282306E+38  -3.40282306E+38  -3.40282306E+38  -3.40282306E+38  -3.40282306E+38  -3.40282306E+38  -3.40282306E+38  -3.40282306E+38  -3.40282306E+38  -3.40282306E+38  -3.40282306E+38  -3.40282306E+38  -3.40282306E+38  -3.40282306E+38  -3.40282306E+38  -3.40282306E+38  -3.40282306E+38  -3.40282306E+38  -3.40282306E+38  -3.40282306E+38  -3.40282306E+38  -3.40282306E+38  -3.40282306E+38  -3.40282306E+38  -3.40282306E+38  -3.40282306E+38  -3.40282306E+38       4.61132193       8.43323898       7.25873661       5.50679874       5.31532812       5.91477299       5.04936647       5.04936647       5.60550594       5.04936647       5.04936647       5.04936647       5.04936647       5.20470905       4.96564388       5.38778210       5.42756414       4.96564388       7.06555748       4.96564388       4.96564388       4.96564388       5.10496664       5.51793814       5.19558811       5.05949211       5.09810877       6.04310226       5.44860268       5.44860268       5.44860268       9.69122124       5.92416859       5.44860268       5.44860268       6.52879429       5.44860268       5.59634304       5.82027531       6.31225395       5.44860268
         5.74660015       6.75708532       6.20863962       8.13313103       6.68425465       5.33027697       5.92255068  -3.40282306E+38  -3.40282306E+38  -3.40282306E+38  -3.40282306E+38  -3.40282306E+38  -3.40282306E+38  -3.40282306E+38  -3.40282306E+38  -3.40282306E+38  -3.40282306E+38  -3.40282306E+38  -3.40282306E+38  -3.40282306E+38  -3.40282306E+38  -3.40282306E+38  -3.40282306E+38  -3.40282306E+38  -3.40282306E+38  -3.40282306E+38  -3.40282306E+38  -3.40282306E+38  -3.40282306E+38  -3.40282306E+38  -3.40282306E+38  -3.40282306E+38  -3.40282306E+38  -3.40282306E+38  -3.40282306E+38  -3.40282306E+38  -3.40282306E+38  -3.40282306E+38  -3.40282306E+38  -3.40282306E+38  -3.40282306E+38  -3.40282306E+38  -3.40282306E+38  -3.40282306E+38  -3.40282306E+38  -3.40282306E+38  -3.40282306E+38  -3.40282306E+38  -3.40282306E+38  -3.40282306E+38  -3.40282306E+38  -3.40282306E+38  -3.40282306E+38  -3.40282306E+38  -3.40282306E+38  -3.40282306E+38  -3.40282306E+38  -3.40282306E+38  -3.40282306E+38  -3.40282306E+38  -3.40282306E+38  -3.40282306E+38  -3.40282306E+38  -3.40282306E+38  -3.40282306E+38  -3.40282306E+38  -3.40282306E+38  -3.40282306E+38  -3.40282306E+38  -3.40282306E+38  -3.40282306E+38  -3.40282306E+38  -3.40282306E+38  -3.40282306E+38  -3.40282306E+38  -3.40282306E+38       4.61132193       7.22101927       7.69472027       6.19603109       5.31532812       6.53451633       5.04936647       5.20917606       5.43601656       5.04936647       5.04936647       5.04936647       5.04936647       5.10485506       5.09072113       6.43500042       5.35438681       4.96564388       4.96564388       5.12601614       5.01487923       4.96564388       5.42853928       5.94204235       5.05949211       5.05949211       7.10037708       5.44860268       5.44860268
         5.64686298       6.63795090       7.46468019       5.44860268       5.44860268       5.44860268       7.76554155       6.26624823       5.44860268       6.06389236       7.21954727       5.44860268       6.52052689       6.20863962       6.20863962       7.14669323       5.33027697       5.33027697       6.23227692  -3.40282306E+38  -3.40282306E+38  -3.40282306E+38  -3.40282306E+38  -3.40282306E+38  -3.40282306E+38  -3.40282306E+38  -3.40282306E+38  -3.40282306E+38  -3.40282306E+38  -3.40282306E+38  -3.40282306E+38  -3.40282306E+38  -3.40282306E+38  -3.40282306E+38  -3.40282306E+38  -3.40282306E+38  -3.40282306E+38  -3.40282306E+38  -3.40282306E+38  -3.40282306E+38  -3.40282306E+38  -3.40282306E+38  -3.40282306E+38  -3.40282306E+38  -3.40282306E+38  -3.40282306E+38  -3.40282306E+38  -3.40282306E+38  -3.40282306E+38  -3.40282306E+38  -3.40282306E+38  -3.40282306E+38  -3.40282306E+38  -3.40282306E+38  -3.40282306E+38  -3.40282306E+38  -3.40282306E+38  -3.40282306E+38  -3.40282306E+38  -3.40282306E+38  -3.40282306E+38  -3.40282306E+38  -3.40282306E+38  -3.40282306E+38  -3.40282306E+38  -3.40282306E+38  -3.40282306E+38  -3.40282306E+38  -3.40282306E+38  -3.40282306E+38  -3.40282306E+38  -3.40282306E+38  -3.40282306E+38  -3.40282306E+38  -3.40282306E+38  -3.40282306E+38  -3.40282306E+38  -3.40282306E+38  -3.40282306E+38  -3.40282306E+38  -3.40282306E+38  -3.40282306E+38  -3.40282306E+38  -3.40282306E+38  -3.40282306E+38  -3.40282306E+38  -3.40282306E+38  -3.40282306E+38       8.15531635       6.51651669       5.72374201       5.41821575       6.27521133       6.19971848       5.58630562       6.21715832       6.05656719       5.22688580       7.38820982       5.84801769       5.04936647       5.08997011       5.04805183       4.96564388       4.96564388