# File generated by Flopy version 3.3.6 on 06/02/2023 at 11:53:52.
BEGIN options
  SAVE_FLOWS
END options

BEGIN griddata
  icelltype
    CONSTANT  1
  k
    CONSTANT  1.00000000E-06
END griddata

