# File generated by Flopy version 3.3.6 on 06/02/2023 at 11:53:52.
BEGIN options
  SAVE_FLOWS
END options

BEGIN packages
  IC6  peat_testing_1.ic  ic
  DIS6  peat_testing_1.dis  dis
  NPF6  peat_testing_1.npf  npf
  RIV6  peat_testing_1.riv  riv
  CHD6  peat_testing_1.chd  chd
  EVT6  peat_testing_1.evta  evta_0
  OC6  peat_testing_1.oc  oc
END packages

