# File generated by Flopy version 3.3.6 on 03/03/2023 at 14:04:50.
BEGIN options
  SAVE_FLOWS
END options

BEGIN dimensions
  MAXBOUND  801
END dimensions

