# File generated by Flopy version 3.3.6 on 06/02/2023 at 11:53:52.
BEGIN options
  SAVE_FLOWS
END options

BEGIN dimensions
  MAXBOUND  401
END dimensions

BEGIN period  1
  1 26 26       3.00000000
  1 1 1       3.00000000
  1 1 101       3.00000000
  1 2 1       3.00000000
  1 2 101       3.00000000
  1 1 2       3.00000000
  1 101 2       3.00000000
  1 3 1       3.00000000
  1 3 101       3.00000000
  1 1 3       3.00000000
  1 101 3       3.00000000
  1 4 1       3.00000000
  1 4 101       3.00000000
  1 1 4       3.00000000
  1 101 4       3.00000000
  1 5 1       3.00000000
  1 5 101       3.00000000
  1 1 5       3.00000000
  1 101 5       3.00000000
  1 6 1       3.00000000
  1 6 101       3.00000000
  1 1 6       3.00000000
  1 101 6       3.00000000
  1 7 1       3.00000000
  1 7 101       3.00000000
  1 1 7       3.00000000
  1 101 7       3.00000000
  1 8 1       3.00000000
  1 8 101       3.00000000
  1 1 8       3.00000000
  1 101 8       3.00000000
  1 9 1       3.00000000
  1 9 101       3.00000000
  1 1 9       3.00000000
  1 101 9       3.00000000
  1 10 1       3.00000000
  1 10 101       3.00000000
  1 1 10       3.00000000
  1 101 10       3.00000000
  1 11 1       3.00000000
  1 11 101       3.00000000
  1 1 11       3.00000000
  1 101 11       3.00000000
  1 12 1       3.00000000
  1 12 101       3.00000000
  1 1 12       3.00000000
  1 101 12       3.00000000
  1 13 1       3.00000000
  1 13 101       3.00000000
  1 1 13       3.00000000
  1 101 13       3.00000000
  1 14 1       3.00000000
  1 14 101       3.00000000
  1 1 14       3.00000000
  1 101 14       3.00000000
  1 15 1       3.00000000
  1 15 101       3.00000000
  1 1 15       3.00000000
  1 101 15       3.00000000
  1 16 1       3.00000000
  1 16 101       3.00000000
  1 1 16       3.00000000
  1 101 16       3.00000000
  1 17 1       3.00000000
  1 17 101       3.00000000
  1 1 17       3.00000000
  1 101 17       3.00000000
  1 18 1       3.00000000
  1 18 101       3.00000000
  1 1 18       3.00000000
  1 101 18       3.00000000
  1 19 1       3.00000000
  1 19 101       3.00000000
  1 1 19       3.00000000
  1 101 19       3.00000000
  1 20 1       3.00000000
  1 20 101       3.00000000
  1 1 20       3.00000000
  1 101 20       3.00000000
  1 21 1       3.00000000
  1 21 101       3.00000000
  1 1 21       3.00000000
  1 101 21       3.00000000
  1 22 1       3.00000000
  1 22 101       3.00000000
  1 1 22       3.00000000
  1 101 22       3.00000000
  1 23 1       3.00000000
  1 23 101       3.00000000
  1 1 23       3.00000000
  1 101 23       3.00000000
  1 24 1       3.00000000
  1 24 101       3.00000000
  1 1 24       3.00000000
  1 101 24       3.00000000
  1 25 1       3.00000000
  1 25 101       3.00000000
  1 1 25       3.00000000
  1 101 25       3.00000000
  1 26 1       3.00000000
  1 26 101       3.00000000
  1 1 26       3.00000000
  1 101 26       3.00000000
  1 27 1       3.00000000
  1 27 101       3.00000000
  1 1 27       3.00000000
  1 101 27       3.00000000
  1 28 1       3.00000000
  1 28 101       3.00000000
  1 1 28       3.00000000
  1 101 28       3.00000000
  1 29 1       3.00000000
  1 29 101       3.00000000
  1 1 29       3.00000000
  1 101 29       3.00000000
  1 30 1       3.00000000
  1 30 101       3.00000000
  1 1 30       3.00000000
  1 101 30       3.00000000
  1 31 1       3.00000000
  1 31 101       3.00000000
  1 1 31       3.00000000
  1 101 31       3.00000000
  1 32 1       3.00000000
  1 32 101       3.00000000
  1 1 32       3.00000000
  1 101 32       3.00000000
  1 33 1       3.00000000
  1 33 101       3.00000000
  1 1 33       3.00000000
  1 101 33       3.00000000
  1 34 1       3.00000000
  1 34 101       3.00000000
  1 1 34       3.00000000
  1 101 34       3.00000000
  1 35 1       3.00000000
  1 35 101       3.00000000
  1 1 35       3.00000000
  1 101 35       3.00000000
  1 36 1       3.00000000
  1 36 101       3.00000000
  1 1 36       3.00000000
  1 101 36       3.00000000
  1 37 1       3.00000000
  1 37 101       3.00000000
  1 1 37       3.00000000
  1 101 37       3.00000000
  1 38 1       3.00000000
  1 38 101       3.00000000
  1 1 38       3.00000000
  1 101 38       3.00000000
  1 39 1       3.00000000
  1 39 101       3.00000000
  1 1 39       3.00000000
  1 101 39       3.00000000
  1 40 1       3.00000000
  1 40 101       3.00000000
  1 1 40       3.00000000
  1 101 40       3.00000000
  1 41 1       3.00000000
  1 41 101       3.00000000
  1 1 41       3.00000000
  1 101 41       3.00000000
  1 42 1       3.00000000
  1 42 101       3.00000000
  1 1 42       3.00000000
  1 101 42       3.00000000
  1 43 1       3.00000000
  1 43 101       3.00000000
  1 1 43       3.00000000
  1 101 43       3.00000000
  1 44 1       3.00000000
  1 44 101       3.00000000
  1 1 44       3.00000000
  1 101 44       3.00000000
  1 45 1       3.00000000
  1 45 101       3.00000000
  1 1 45       3.00000000
  1 101 45       3.00000000
  1 46 1       3.00000000
  1 46 101       3.00000000
  1 1 46       3.00000000
  1 101 46       3.00000000
  1 47 1       3.00000000
  1 47 101       3.00000000
  1 1 47       3.00000000
  1 101 47       3.00000000
  1 48 1       3.00000000
  1 48 101       3.00000000
  1 1 48       3.00000000
  1 101 48       3.00000000
  1 49 1       3.00000000
  1 49 101       3.00000000
  1 1 49       3.00000000
  1 101 49       3.00000000
  1 50 1       3.00000000
  1 50 101       3.00000000
  1 1 50       3.00000000
  1 101 50       3.00000000
  1 51 1       3.00000000
  1 51 101       3.00000000
  1 1 51       3.00000000
  1 101 51       3.00000000
  1 52 1       3.00000000
  1 52 101       3.00000000
  1 1 52       3.00000000
  1 101 52       3.00000000
  1 53 1       3.00000000
  1 53 101       3.00000000
  1 1 53       3.00000000
  1 101 53       3.00000000
  1 54 1       3.00000000
  1 54 101       3.00000000
  1 1 54       3.00000000
  1 101 54       3.00000000
  1 55 1       3.00000000
  1 55 101       3.00000000
  1 1 55       3.00000000
  1 101 55       3.00000000
  1 56 1       3.00000000
  1 56 101       3.00000000
  1 1 56       3.00000000
  1 101 56       3.00000000
  1 57 1       3.00000000
  1 57 101       3.00000000
  1 1 57       3.00000000
  1 101 57       3.00000000
  1 58 1       3.00000000
  1 58 101       3.00000000
  1 1 58       3.00000000
  1 101 58       3.00000000
  1 59 1       3.00000000
  1 59 101       3.00000000
  1 1 59       3.00000000
  1 101 59       3.00000000
  1 60 1       3.00000000
  1 60 101       3.00000000
  1 1 60       3.00000000
  1 101 60       3.00000000
  1 61 1       3.00000000
  1 61 101       3.00000000
  1 1 61       3.00000000
  1 101 61       3.00000000
  1 62 1       3.00000000
  1 62 101       3.00000000
  1 1 62       3.00000000
  1 101 62       3.00000000
  1 63 1       3.00000000
  1 63 101       3.00000000
  1 1 63       3.00000000
  1 101 63       3.00000000
  1 64 1       3.00000000
  1 64 101       3.00000000
  1 1 64       3.00000000
  1 101 64       3.00000000
  1 65 1       3.00000000
  1 65 101       3.00000000
  1 1 65       3.00000000
  1 101 65       3.00000000
  1 66 1       3.00000000
  1 66 101       3.00000000
  1 1 66       3.00000000
  1 101 66       3.00000000
  1 67 1       3.00000000
  1 67 101       3.00000000
  1 1 67       3.00000000
  1 101 67       3.00000000
  1 68 1       3.00000000
  1 68 101       3.00000000
  1 1 68       3.00000000
  1 101 68       3.00000000
  1 69 1       3.00000000
  1 69 101       3.00000000
  1 1 69       3.00000000
  1 101 69       3.00000000
  1 70 1       3.00000000
  1 70 101       3.00000000
  1 1 70       3.00000000
  1 101 70       3.00000000
  1 71 1       3.00000000
  1 71 101       3.00000000
  1 1 71       3.00000000
  1 101 71       3.00000000
  1 72 1       3.00000000
  1 72 101       3.00000000
  1 1 72       3.00000000
  1 101 72       3.00000000
  1 73 1       3.00000000
  1 73 101       3.00000000
  1 1 73       3.00000000
  1 101 73       3.00000000
  1 74 1       3.00000000
  1 74 101       3.00000000
  1 1 74       3.00000000
  1 101 74       3.00000000
  1 75 1       3.00000000
  1 75 101       3.00000000
  1 1 75       3.00000000
  1 101 75       3.00000000
  1 76 1       3.00000000
  1 76 101       3.00000000
  1 1 76       3.00000000
  1 101 76       3.00000000
  1 77 1       3.00000000
  1 77 101       3.00000000
  1 1 77       3.00000000
  1 101 77       3.00000000
  1 78 1       3.00000000
  1 78 101       3.00000000
  1 1 78       3.00000000
  1 101 78       3.00000000
  1 79 1       3.00000000
  1 79 101       3.00000000
  1 1 79       3.00000000
  1 101 79       3.00000000
  1 80 1       3.00000000
  1 80 101       3.00000000
  1 1 80       3.00000000
  1 101 80       3.00000000
  1 81 1       3.00000000
  1 81 101       3.00000000
  1 1 81       3.00000000
  1 101 81       3.00000000
  1 82 1       3.00000000
  1 82 101       3.00000000
  1 1 82       3.00000000
  1 101 82       3.00000000
  1 83 1       3.00000000
  1 83 101       3.00000000
  1 1 83       3.00000000
  1 101 83       3.00000000
  1 84 1       3.00000000
  1 84 101       3.00000000
  1 1 84       3.00000000
  1 101 84       3.00000000
  1 85 1       3.00000000
  1 85 101       3.00000000
  1 1 85       3.00000000
  1 101 85       3.00000000
  1 86 1       3.00000000
  1 86 101       3.00000000
  1 1 86       3.00000000
  1 101 86       3.00000000
  1 87 1       3.00000000
  1 87 101       3.00000000
  1 1 87       3.00000000
  1 101 87       3.00000000
  1 88 1       3.00000000
  1 88 101       3.00000000
  1 1 88       3.00000000
  1 101 88       3.00000000
  1 89 1       3.00000000
  1 89 101       3.00000000
  1 1 89       3.00000000
  1 101 89       3.00000000
  1 90 1       3.00000000
  1 90 101       3.00000000
  1 1 90       3.00000000
  1 101 90       3.00000000
  1 91 1       3.00000000
  1 91 101       3.00000000
  1 1 91       3.00000000
  1 101 91       3.00000000
  1 92 1       3.00000000
  1 92 101       3.00000000
  1 1 92       3.00000000
  1 101 92       3.00000000
  1 93 1       3.00000000
  1 93 101       3.00000000
  1 1 93       3.00000000
  1 101 93       3.00000000
  1 94 1       3.00000000
  1 94 101       3.00000000
  1 1 94       3.00000000
  1 101 94       3.00000000
  1 95 1       3.00000000
  1 95 101       3.00000000
  1 1 95       3.00000000
  1 101 95       3.00000000
  1 96 1       3.00000000
  1 96 101       3.00000000
  1 1 96       3.00000000
  1 101 96       3.00000000
  1 97 1       3.00000000
  1 97 101       3.00000000
  1 1 97       3.00000000
  1 101 97       3.00000000
  1 98 1       3.00000000
  1 98 101       3.00000000
  1 1 98       3.00000000
  1 101 98       3.00000000
  1 99 1       3.00000000
  1 99 101       3.00000000
  1 1 99       3.00000000
  1 101 99       3.00000000
  1 100 1       3.00000000
  1 100 101       3.00000000
  1 1 100       3.00000000
  1 101 100       3.00000000
  1 101 1       3.00000000
  1 101 101       3.00000000
END period  1

