# File generated by Flopy version 3.3.6 on 03/03/2023 at 14:04:50.
BEGIN options
  SAVE_FLOWS
END options

BEGIN griddata
  icelltype
    CONSTANT  1
  k
    CONSTANT  1.00000000E-06
END griddata

