# File generated by Flopy version 3.3.6 on 06/02/2023 at 11:53:52.
BEGIN options
  SAVE_FLOWS
END options

BEGIN dimensions
  MAXBOUND  257
END dimensions

BEGIN period  1
  1 1 59       6.00000000       0.01000000  'RIV'
  1 1 60       8.00000000       0.01000000  'RIV'
  1 1 61       8.00000000       0.01000000  'RIV'
  1 1 62       9.00000000       0.01000000  'RIV'
  1 2 57       3.00000000       0.01000000  'RIV'
  1 2 58       6.00000000       0.01000000  'RIV'
  1 2 59       7.00000000       0.01000000  'RIV'
  1 3 55       6.00000000       0.01000000  'RIV'
  1 3 56       6.00000000       0.01000000  'RIV'
  1 3 57       7.00000000       0.01000000  'RIV'
  1 3 67      10.00000000       0.01000000  'RIV'
  1 3 68       7.00000000       0.01000000  'RIV'
  1 4 23       4.00000000       0.01000000  'RIV'
  1 4 24      10.00000000       0.01000000  'RIV'
  1 4 25      18.00000000       0.01000000  'RIV'
  1 4 26      16.00000000       0.01000000  'RIV'
  1 4 53       6.00000000       0.01000000  'RIV'
  1 4 54       7.00000000       0.01000000  'RIV'
  1 4 55       9.00000000       0.01000000  'RIV'
  1 4 68       8.00000000       0.01000000  'RIV'
  1 5 26      13.00000000       0.01000000  'RIV'
  1 5 27      13.00000000       0.01000000  'RIV'
  1 5 28      10.00000000       0.01000000  'RIV'
  1 5 29       6.00000000       0.01000000  'RIV'
  1 5 51      11.00000000       0.01000000  'RIV'
  1 5 52      12.00000000       0.01000000  'RIV'
  1 5 53       8.00000000       0.01000000  'RIV'
  1 5 68       9.00000000       0.01000000  'RIV'
  1 6 29       6.00000000       0.01000000  'RIV'
  1 6 30       6.00000000       0.01000000  'RIV'
  1 6 48      13.00000000       0.01000000  'RIV'
  1 6 49       8.00000000       0.01000000  'RIV'
  1 6 50       7.00000000       0.01000000  'RIV'
  1 6 51       7.00000000       0.01000000  'RIV'
  1 6 68       9.00000000       0.01000000  'RIV'
  1 7 30      12.00000000       0.01000000  'RIV'
  1 7 31      11.00000000       0.01000000  'RIV'
  1 7 32       8.00000000       0.01000000  'RIV'
  1 7 33       7.00000000       0.01000000  'RIV'
  1 7 46       9.00000000       0.01000000  'RIV'
  1 7 47       9.00000000       0.01000000  'RIV'
  1 7 48      11.00000000       0.01000000  'RIV'
  1 8 33       5.00000000       0.01000000  'RIV'
  1 8 34       6.00000000       0.01000000  'RIV'
  1 8 44       8.00000000       0.01000000  'RIV'
  1 8 45      10.00000000       0.01000000  'RIV'
  1 8 46       7.00000000       0.01000000  'RIV'
  1 9 41       7.00000000       0.01000000  'RIV'
  1 9 42       8.00000000       0.01000000  'RIV'
  1 9 43       4.00000000       0.01000000  'RIV'
  1 9 44       7.00000000       0.01000000  'RIV'
  1 10 42       7.00000000       0.01000000  'RIV'
  1 11 41       8.00000000       0.01000000  'RIV'
  1 11 42       6.00000000       0.01000000  'RIV'
  1 12 39       9.00000000       0.01000000  'RIV'
  1 12 40       9.00000000       0.01000000  'RIV'
  1 12 41       8.00000000       0.01000000  'RIV'
  1 13 38      10.00000000       0.01000000  'RIV'
  1 13 39      10.00000000       0.01000000  'RIV'
  1 14 38       9.00000000       0.01000000  'RIV'
  1 15 33      10.00000000       0.01000000  'RIV'
  1 15 34      14.00000000       0.01000000  'RIV'
  1 15 35      11.00000000       0.01000000  'RIV'
  1 15 36      11.00000000       0.01000000  'RIV'
  1 15 37      13.00000000       0.01000000  'RIV'
  1 15 38      10.00000000       0.01000000  'RIV'
  1 16 32      15.00000000       0.01000000  'RIV'
  1 16 33      11.00000000       0.01000000  'RIV'
  1 17 32      10.00000000       0.01000000  'RIV'
  1 18 31      14.00000000       0.01000000  'RIV'
  1 18 32      10.00000000       0.01000000  'RIV'
  1 19 30       7.00000000       0.01000000  'RIV'
  1 19 31      12.00000000       0.01000000  'RIV'
  1 20 30       9.00000000       0.01000000  'RIV'
  1 20 31      10.00000000       0.01000000  'RIV'
  1 21 29      11.00000000       0.01000000  'RIV'
  1 21 30       9.00000000       0.01000000  'RIV'
  1 22 28       8.00000000       0.01000000  'RIV'
  1 22 29       9.00000000       0.01000000  'RIV'
  1 23 24       5.00000000       0.01000000  'RIV'
  1 23 25       5.00000000       0.01000000  'RIV'
  1 23 26       8.00000000       0.01000000  'RIV'
  1 23 27       9.00000000       0.01000000  'RIV'
  1 23 28      12.00000000       0.01000000  'RIV'
  1 24 23       6.00000000       0.01000000  'RIV'
  1 24 24       5.00000000       0.01000000  'RIV'
  1 25 21       4.00000000       0.01000000  'RIV'
  1 25 22       5.00000000       0.01000000  'RIV'
  1 25 23       5.00000000       0.01000000  'RIV'
  1 25 69       6.00000000       0.01000000  'RIV'
  1 26 20       5.00000000       0.01000000  'RIV'
  1 26 21       6.00000000       0.01000000  'RIV'
  1 26 69       6.00000000       0.01000000  'RIV'
  1 26 70       5.00000000       0.01000000  'RIV'
  1 27 15       5.00000000       0.01000000  'RIV'
  1 27 16       6.00000000       0.01000000  'RIV'
  1 27 17       6.00000000       0.01000000  'RIV'
  1 27 19       7.00000000       0.01000000  'RIV'
  1 27 20       5.00000000       0.01000000  'RIV'
  1 27 70       6.00000000       0.01000000  'RIV'
  1 27 71       5.00000000       0.01000000  'RIV'
  1 28 2       6.00000000       0.01000000  'RIV'
  1 28 15       5.00000000       0.01000000  'RIV'
  1 28 17       6.00000000       0.01000000  'RIV'
  1 28 18       7.00000000       0.01000000  'RIV'
  1 28 19       8.00000000       0.01000000  'RIV'
  1 28 71       8.00000000       0.01000000  'RIV'
  1 29 2       5.00000000       0.01000000  'RIV'
  1 29 3       6.00000000       0.01000000  'RIV'
  1 29 4       6.00000000       0.01000000  'RIV'
  1 29 15       5.00000000       0.01000000  'RIV'
  1 29 71       7.00000000       0.01000000  'RIV'
  1 29 72       7.00000000       0.01000000  'RIV'
  1 30 4       4.00000000       0.01000000  'RIV'
  1 30 5       4.00000000       0.01000000  'RIV'
  1 30 6       5.00000000       0.01000000  'RIV'
  1 30 14       6.00000000       0.01000000  'RIV'
  1 30 15       3.00000000       0.01000000  'RIV'
  1 30 72       5.00000000       0.01000000  'RIV'
  1 30 73       9.00000000       0.01000000  'RIV'
  1 31 6       8.00000000       0.01000000  'RIV'
  1 31 7       3.00000000       0.01000000  'RIV'
  1 31 13       9.00000000       0.01000000  'RIV'
  1 31 14       5.00000000       0.01000000  'RIV'
  1 31 73       5.00000000       0.01000000  'RIV'
  1 32 12       9.00000000       0.01000000  'RIV'
  1 32 13       6.00000000       0.01000000  'RIV'
  1 32 73       5.00000000       0.01000000  'RIV'
  1 33 12       9.00000000       0.01000000  'RIV'
  1 33 73       9.00000000       0.01000000  'RIV'
  1 33 74       9.00000000       0.01000000  'RIV'
  1 34 12      11.00000000       0.01000000  'RIV'
  1 34 74       9.00000000       0.01000000  'RIV'
  1 35 12       5.00000000       0.01000000  'RIV'
  1 35 74      10.00000000       0.01000000  'RIV'
  1 35 75       9.00000000       0.01000000  'RIV'
  1 36 12       6.00000000       0.01000000  'RIV'
  1 36 75      10.00000000       0.01000000  'RIV'
  1 37 11       3.00000000       0.01000000  'RIV'
  1 37 12       9.00000000       0.01000000  'RIV'
  1 40 75       9.00000000       0.01000000  'RIV'
  1 40 76      13.00000000       0.01000000  'RIV'
  1 40 87      15.00000000       0.01000000  'RIV'
  1 40 88      14.00000000       0.01000000  'RIV'
  1 41 74      12.00000000       0.01000000  'RIV'
  1 41 75       9.00000000       0.01000000  'RIV'
  1 42 70      14.00000000       0.01000000  'RIV'
  1 42 71      11.00000000       0.01000000  'RIV'
  1 42 72       8.00000000       0.01000000  'RIV'
  1 42 73       7.00000000       0.01000000  'RIV'
  1 42 74       9.00000000       0.01000000  'RIV'
  1 43 66      12.00000000       0.01000000  'RIV'
  1 43 67       9.00000000       0.01000000  'RIV'
  1 43 68       9.00000000       0.01000000  'RIV'
  1 43 69      13.00000000       0.01000000  'RIV'
  1 43 70      12.00000000       0.01000000  'RIV'
  1 47 5       4.00000000       0.01000000  'RIV'
  1 48 5       8.00000000       0.01000000  'RIV'
  1 49 4       5.00000000       0.01000000  'RIV'
  1 49 5       6.00000000       0.01000000  'RIV'
  1 50 3       5.00000000       0.01000000  'RIV'
  1 50 4       6.00000000       0.01000000  'RIV'
  1 51 3       8.00000000       0.01000000  'RIV'
  1 52 2       5.00000000       0.01000000  'RIV'
  1 52 3       6.00000000       0.01000000  'RIV'
  1 53 2       7.00000000       0.01000000  'RIV'
  1 55 1       8.00000000       0.01000000  'RIV'
  1 56 1       6.00000000       0.01000000  'RIV'
  1 57 1       9.00000000       0.01000000  'RIV'
  1 58 1       8.00000000       0.01000000  'RIV'
  1 58 2       8.00000000       0.01000000  'RIV'
  1 58 3       8.00000000       0.01000000  'RIV'
  1 58 4      12.00000000       0.01000000  'RIV'
  1 58 5      15.00000000       0.01000000  'RIV'
  1 58 6      10.00000000       0.01000000  'RIV'
  1 58 7       9.00000000       0.01000000  'RIV'
  1 58 8       7.00000000       0.01000000  'RIV'
  1 58 9       8.00000000       0.01000000  'RIV'
  1 59 9      11.00000000       0.01000000  'RIV'
  1 59 10      11.00000000       0.01000000  'RIV'
  1 59 11       9.00000000       0.01000000  'RIV'
  1 59 12      12.00000000       0.01000000  'RIV'
  1 59 13      15.00000000       0.01000000  'RIV'
  1 59 14      13.00000000       0.01000000  'RIV'
  1 59 15      14.00000000       0.01000000  'RIV'
  1 59 16      14.00000000       0.01000000  'RIV'
  1 59 17      12.00000000       0.01000000  'RIV'
  1 59 18      13.00000000       0.01000000  'RIV'
  1 59 19      15.00000000       0.01000000  'RIV'
  1 59 20      13.00000000       0.01000000  'RIV'
  1 59 21      10.00000000       0.01000000  'RIV'
  1 59 22      11.00000000       0.01000000  'RIV'
  1 59 23      11.00000000       0.01000000  'RIV'
  1 59 24      18.00000000       0.01000000  'RIV'
  1 59 25      16.00000000       0.01000000  'RIV'
  1 59 26      17.00000000       0.01000000  'RIV'
  1 59 27      16.00000000       0.01000000  'RIV'
  1 59 28      17.00000000       0.01000000  'RIV'
  1 59 29      19.00000000       0.01000000  'RIV'
  1 78 100      13.00000000       0.01000000  'RIV'
  1 78 101      10.00000000       0.01000000  'RIV'
  1 79 99      16.00000000       0.01000000  'RIV'
  1 79 100      11.00000000       0.01000000  'RIV'
  1 79 101      10.00000000       0.01000000  'RIV'
  1 80 98      13.00000000       0.01000000  'RIV'
  1 80 99      11.00000000       0.01000000  'RIV'
  1 80 101       9.00000000       0.01000000  'RIV'
  1 81 98      13.00000000       0.01000000  'RIV'
  1 82 98      13.00000000       0.01000000  'RIV'
  1 83 97      17.00000000       0.01000000  'RIV'
  1 83 98      15.00000000       0.01000000  'RIV'
  1 84 96      16.00000000       0.01000000  'RIV'
  1 84 97      15.00000000       0.01000000  'RIV'
  1 85 96      12.00000000       0.01000000  'RIV'
  1 86 96      13.00000000       0.01000000  'RIV'
  1 87 96      17.00000000       0.01000000  'RIV'
  1 88 95      16.00000000       0.01000000  'RIV'
  1 88 96      14.00000000       0.01000000  'RIV'
  1 88 101       6.00000000       0.01000000  'RIV'
  1 89 95      15.00000000       0.01000000  'RIV'
  1 89 101       6.00000000       0.01000000  'RIV'
  1 90 94      14.00000000       0.01000000  'RIV'
  1 90 95      12.00000000       0.01000000  'RIV'
  1 91 93      13.00000000       0.01000000  'RIV'
  1 91 94      11.00000000       0.01000000  'RIV'
  1 92 92      19.00000000       0.01000000  'RIV'
  1 92 93      15.00000000       0.01000000  'RIV'
  1 93 91      17.00000000       0.01000000  'RIV'
  1 93 92      15.00000000       0.01000000  'RIV'
  1 94 91      12.00000000       0.01000000  'RIV'
  1 95 90      12.00000000       0.01000000  'RIV'
  1 95 91      13.00000000       0.01000000  'RIV'
  1 96 89      13.00000000       0.01000000  'RIV'
  1 96 90       9.00000000       0.01000000  'RIV'
  1 97 88       8.00000000       0.01000000  'RIV'
  1 97 89      11.00000000       0.01000000  'RIV'
  1 98 87       7.00000000       0.01000000  'RIV'
  1 98 88       8.00000000       0.01000000  'RIV'
  1 99 86       7.00000000       0.01000000  'RIV'
  1 99 87       4.00000000       0.01000000  'RIV'
  1 100 85       7.00000000       0.01000000  'RIV'
  1 100 86       6.00000000       0.01000000  'RIV'
  1 101 83       8.00000000       0.01000000  'RIV'
  1 101 84       6.00000000       0.01000000  'RIV'
  1 101 85       4.00000000       0.01000000  'RIV'
  1 102 82       7.00000000       0.01000000  'RIV'
  1 102 83       9.00000000       0.01000000  'RIV'
  1 103 81       8.00000000       0.01000000  'RIV'
  1 103 82       8.00000000       0.01000000  'RIV'
  1 104 64      19.00000000       0.01000000  'RIV'
  1 104 65      17.00000000       0.01000000  'RIV'
  1 104 79       6.00000000       0.01000000  'RIV'
  1 104 80       7.00000000       0.01000000  'RIV'
  1 104 81       5.00000000       0.01000000  'RIV'
  1 105 65      16.00000000       0.01000000  'RIV'
  1 105 78       6.00000000       0.01000000  'RIV'
  1 105 79       6.00000000       0.01000000  'RIV'
END period  1

